*SPEF "IEEE 1481.1999"
*DESIGN "vending_machine_18105070"
*DATE "19:53:17 Monday January 06, 2025"
*VENDOR "unknown"
*PROGRAM "qrouter"
*VERSION "unknown"
*DESIGN_FLOW "qflow"
*DIVIDER /
*DELIMITER :
*BUS_DELIMITER <>
*T_UNIT 1 PS
*C_UNIT 1 FF
*R_UNIT 1 OHM
*L_UNIT 1 HENRY

*NAME_MAP
*1 in[1]
*2 _76_
*3 _67_
*4 _68_
*5 _65_
*6 _52_
*7 _84_
*8 _60_
*9 _82_
*10 _44_
*11 rst
*12 ERROR
*13 in[0]
*14 _83_
*15 _64_
*16 _52_
*17 _59_
*18 _45_
*19 _67_
*20 n_state[1]
*21 _88_
*22 _61_
*23 _56_
*24 _54_
*25 _66_
*26 _71_
*27 _48_
*28 clk
*29 _92_
*30 _91_
*31 _90_
*32 _88_
*33 _89_
*34 n_state[2]
*35 _92_
*36 _57_
*37 _50_
*38 _72_
*39 _48_
*40 _14_
*41 _57_
*42 _58_
*43 _65_
*44 _86_
*45 _77_
*46 _5_
*47 _47_
*48 _71_
*49 _48_
*50 _78_
*51 _6_
*52 _48_
*53 _49_
*54 _60_
*55 _81_
*56 _8_
*57 _50_
*58 _66_
*59 _70_
*60 _51_
*61 _11_
*62 _53_
*63 _58_
*64 _81_
*65 _54_
*66 _41_[0]
*67 _90_
*68 _93_
*69 _63_
*70 _73_
*71 _19_
*72 _63_
*73 _68_
*74 _64_
*75 _72_
*76 _26_
*77 _70_
*78 _78_
*79 _73_
*80 _81_
*81 _42_
*82 _89_
*83 _82_
*84 _80_
*85 _95_
*86 _2_
*87 _44_
*88 _45_
*89 _83_
*90 _3_
*91 _45_
*92 _85_
*93 _46_
*94 _4_
*95 _46_
*96 _61_
*97 _49_
*98 _9_
*99 _51_
*100 _54_
*101 _61_
*102 _10_
*103 _52_
*104 _71_
*105 _53_
*106 _13_
*107 _56_
*108 _70_
*109 _57_
*110 _16_
*111 _59_
*112 _84_
*113 _60_
*114 _22_
*115 _66_
*116 _86_
*117 _69_
*118 _23_
*119 _67_
*120 _77_
*121 _69_
*122 _27_
*123 _71_
*124 _78_
*125 _73_
*126 _41_[1]
*127 _91_
*128 _94_
*129 _75_
*130 _30_
*131 _75_
*132 _79_
*133 _76_
*134 _36_
*135 _82_
*136 _85_
*137 _83_
*138 _7_
*139 _49_
*140 _55_
*141 _12_
*142 _54_
*143 _55_
*144 _0_[0]
*145 _55_
*146 _92_
*147 _15_
*148 _58_
*149 _62_
*150 _17_
*151 _60_
*152 _62_
*153 _18_
*154 _61_
*155 _62_
*156 _0_[1]
*157 _62_
*158 _88_
*159 _20_
*160 _64_
*161 _65_
*162 _21_
*163 _65_
*164 _74_
*165 _24_
*166 _68_
*167 _69_
*168 _25_
*169 _69_
*170 _74_
*171 _28_
*172 _72_
*173 _73_
*174 _29_
*175 _73_
*176 _74_
*177 _43_[0]
*178 _74_
*179 _90_
*180 _31_
*181 _76_
*182 _77_
*183 _32_
*184 _77_
*185 _79_
*186 _33_
*187 _78_
*188 _79_
*189 _43_[1]
*190 _79_
*191 _91_
*192 _34_
*193 _80_
*194 _87_
*195 _35_
*196 _81_
*197 _87_
*198 _37_
*199 _83_
*200 _86_
*201 _38_
*202 _84_
*203 _85_
*204 _39_
*205 _85_
*206 _86_
*207 _40_
*208 _86_
*209 _87_
*210 _1_
*211 _87_
*212 _89_
*213 change[0]
*214 _93_
*215 change[1]
*216 _94_
*217 out
*218 _95_

*PORTS
*1 I
*11 I
*13 I
*28 I
*213 O
*215 O
*217 O

*D_NET *1 0.00175104
*CONN
*P *1 O
*I *2:C I *L 0
*I *3:B I *L 0
*I *4:C I *L 0
*I *5:A I *L 0
*I *6:B I *L 0
*I *7:A I *L 0
*I *8:B I *L 0
*I *9:A I *L 0
*I *10:A I *L 0
*CAP
1 1_1 0.0003804
2 1_2 4.08e-05
3 1_3 2.04e-05
4 1_4 0.0004416
5 1_5 8.064e-05
6 1_6 2.688e-05
7 1_7 4.08e-05
8 1_8 6.048e-05
9 1_9 4.08e-05
10 1_10 4.704e-05
11 1_11 4.08e-05
12 1_12 1.344e-05
13 1_13 3.36e-05
14 1_14 4.08e-05
15 1_15 8.736e-05
16 1_16 0.0001836
17 1_17 0.0001716
*RES
1 *1 1_1 4.9
2 1_1 1_2 0.466667
3 1_2 1_3 0.233333
4 1_3 *2:C 0
5 1_3 1_4 5.6
6 1_4 *3:B 0
7 1_1 1_5 2.24
8 1_5 1_6 0.746667
9 1_6 1_7 0.466667
10 1_7 *4:C 0
11 1_6 1_8 1.68
12 1_8 1_9 0.466667
13 1_9 *5:A 0
14 1_8 1_10 1.30667
15 1_10 1_11 0.466667
16 1_11 *6:B 0
17 1_10 1_12 0.373333
18 1_12 1_13 0.933333
19 1_13 1_14 0.466667
20 1_14 *7:A 0
21 1_13 1_15 2.42667
22 1_15 *8:B 0
23 1_12 1_16 2.1
24 1_16 *9:A 0
25 1_5 1_17 2.1
26 1_17 *10:A 0
*END
*D_NET *11 0.000204
*CONN
*P *11 O
*I *12:ERROR I *L 0
*CAP
1 11_1 0.000204
*RES
1 *11 11_1 2.33333
2 11_1 *12:ERROR 0
*END
*D_NET *13 0.00137472
*CONN
*P *13 O
*I *14:A I *L 0
*I *15:C I *L 0
*I *16:A I *L 0
*I *17:A I *L 0
*I *18:A I *L 0
*I *19:A I *L 0
*CAP
1 13_1 2.016e-05
2 13_2 0.00074592
3 13_3 2.688e-05
4 13_4 0
5 13_5 0.00027024
6 13_6 2.04e-05
7 13_7 0.00010152
8 13_8 2.04e-05
9 13_9 7.44e-05
10 13_10 8.4e-06
11 13_11 8.64e-05
*RES
1 *13 13_1 0.56
2 13_1 13_2 11.3867
3 13_2 13_3 0.746667
4 13_3 13_4 0
5 13_4 *14:A 0
6 13_3 13_5 3.64
7 13_5 13_6 0.233333
8 13_6 *15:C 0
9 13_6 13_7 1.82
10 13_7 13_8 0.233333
11 13_8 *16:A 0
12 13_8 13_9 1.4
13 13_9 *17:A 0
14 13_2 13_10 0.233333
15 13_10 *18:A 0
16 13_1 13_11 0.56
17 13_11 *19:A 0
*END
*D_NET *20 0.0005964
*CONN
*I *21:Q O *D _88
*I *22:A I *L 0
*I *23:A I *L 0
*I *24:A I *L 0
*I *25:B I *L 0
*I *26:B I *L 0
*I *27:B I *L 0
*CAP
1 20_1 5.76e-05
2 20_2 0.00010752
3 20_3 0.0001596
4 20_4 6.12e-05
5 20_5 0
6 20_6 6.72e-05
7 20_7 0
8 20_8 5.376e-05
9 20_9 4.032e-05
10 20_10 4.92e-05
*RES
1 *21:Q 20_1 0.373333
2 20_1 *22:A 0
3 20_1 20_2 2.98667
4 20_2 20_3 1.54
5 20_3 *23:A 0
6 20_2 20_4 0.7
7 20_4 20_5 0
8 20_5 *24:A 0
9 20_5 20_6 1.86667
10 20_6 20_7 0
11 20_7 *25:B 0
12 20_6 20_8 1.49333
13 20_8 20_9 1.12
14 20_9 *26:B 0
15 20_8 20_10 0.7
16 20_10 *27:B 0
*END
*D_NET *28 0.00164424
*CONN
*P *28 O
*I *29:CLK I *L 0
*I *30:CLK I *L 0
*I *31:CLK I *L 0
*I *32:CLK I *L 0
*I *33:CLK I *L 0
*CAP
1 28_1 0.00010824
2 28_2 0.000102
3 28_3 4.08e-05
4 28_4 0.00037704
5 28_5 0.00055056
6 28_6 2.04e-05
7 28_7 0.0004452
*RES
1 *28 28_1 2.00667
2 28_1 28_2 1.16667
3 28_2 28_3 0.466667
4 28_3 *29:CLK 0
5 28_2 28_4 9.47333
6 28_4 *30:CLK 0
7 28_4 28_5 6.62667
8 28_5 *31:CLK 0
9 28_1 28_6 0.233333
10 28_6 *32:CLK 0
11 28_6 28_7 4.80667
12 28_7 *33:CLK 0
*END
*D_NET *34 0.00042576
*CONN
*I *35:Q O *D _92
*I *36:A I *L 0
*I *37:A I *L 0
*I *38:A I *L 0
*I *39:A I *L 0
*CAP
1 34_1 9.456e-05
2 34_2 0
3 34_3 0.00011424
4 34_4 0
5 34_5 5.376e-05
6 34_6 2.04e-05
7 34_7 0.0001428
*RES
1 *35:Q 34_1 1.96
2 34_1 34_2 0
3 34_2 *36:A 0
4 34_1 34_3 3.17333
5 34_3 34_4 0
6 34_4 *37:A 0
7 34_3 34_5 1.49333
8 34_5 34_6 0.233333
9 34_6 *38:A 0
10 34_6 34_7 1.63333
11 34_7 *39:A 0
*END
*D_NET *40 0.00129912
*CONN
*I *41:Y O *D _57
*I *42:B I *L 0
*I *43:C I *L 0
*I *44:C I *L 0
*I *45:A I *L 0
*CAP
1 40_1 0.0002904
2 40_2 0.00024408
3 40_3 0.00028392
4 40_4 2.04e-05
5 40_5 0.0002448
6 40_6 0.00021552
*RES
1 *41:Y 40_1 2.89333
2 40_1 40_2 3.78
3 40_2 *42:B 0
4 40_1 40_3 5.55333
5 40_3 40_4 0.233333
6 40_4 *43:C 0
7 40_4 40_5 2.8
8 40_5 *44:C 0
9 40_4 40_6 5.32
10 40_6 *45:A 0
*END
*D_NET *46 0.0003336
*CONN
*I *47:Y O *D _47
*I *48:A I *L 0
*I *49:C I *L 0
*I *50:A I *L 0
*CAP
1 46_1 0.0002016
2 46_2 7.44e-05
3 46_3 5.76e-05
*RES
1 *47:Y 46_1 1.30667
2 46_1 *48:A 0
3 46_1 46_2 1.4
4 46_2 *49:C 0
5 46_1 46_3 0.373333
6 46_3 *50:A 0
*END
*D_NET *51 0.00062904
*CONN
*I *52:Y O *D _48
*I *53:A I *L 0
*I *54:C I *L 0
*I *55:B I *L 0
*CAP
1 51_1 0.00014784
2 51_2 4.08e-05
3 51_3 0.00029136
4 51_4 2.04e-05
5 51_5 0.00012864
*RES
1 *52:Y 51_1 4.10667
2 51_1 51_2 0.466667
3 51_2 *53:A 0
4 51_1 51_3 4.76
5 51_3 51_4 0.233333
6 51_4 *54:C 0
7 51_4 51_5 2.24
8 51_5 *55:B 0
*END
*D_NET *56 0.0004884
*CONN
*I *57:Y O *D _50
*I *58:C I *L 0
*I *59:B I *L 0
*I *60:B I *L 0
*CAP
1 56_1 0.0002004
2 56_2 0.000144
3 56_3 0.000144
*RES
1 *57:Y 56_1 2.00667
2 56_1 *58:C 0
3 56_1 56_2 0.933333
4 56_2 *59:B 0
5 56_1 56_3 0.933333
6 56_3 *60:B 0
*END
*D_NET *61 0.00052152
*CONN
*I *62:Y O *D _53
*I *63:A I *L 0
*I *64:A I *L 0
*I *65:B I *L 0
*CAP
1 61_1 0.00011136
2 61_2 5.76e-05
3 61_3 4.08e-05
4 61_4 0.00031176
*RES
1 *62:Y 61_1 1.86667
2 61_1 61_2 0.373333
3 61_2 *63:A 0
4 61_1 61_3 0.466667
5 61_3 *64:A 0
6 61_1 61_4 4.99333
7 61_4 *65:B 0
*END
*D_NET *66 0.00045744
*CONN
*I *67:Q O *D _90
*I *68:A I *L 0
*I *69:A I *L 0
*I *70:C I *L 0
*CAP
1 66_1 5.76e-05
2 66_2 6.768e-05
3 66_3 0.00012864
4 66_4 0.00020352
*RES
1 *67:Q 66_1 0.373333
2 66_1 *68:A 0
3 66_1 66_2 1.21333
4 66_2 66_3 2.24
5 66_3 *69:A 0
6 66_2 66_4 2.25333
7 66_4 *70:C 0
*END
*D_NET *71 0.00078216
*CONN
*I *72:Y O *D _63
*I *73:B I *L 0
*I *74:B I *L 0
*I *75:C I *L 0
*CAP
1 71_1 0.00021816
2 71_2 8.16e-05
3 71_3 0.0001152
4 71_4 0.0003672
*RES
1 *72:Y 71_1 2.66
2 71_1 71_2 0.933333
3 71_2 *73:B 0
4 71_2 71_3 0.746667
5 71_3 *74:B 0
6 71_1 71_4 4.2
7 71_4 *75:C 0
*END
*D_NET *76 0.00100944
*CONN
*I *77:Y O *D _70
*I *78:C I *L 0
*I *79:D I *L 0
*I *80:C I *L 0
*CAP
1 76_1 8.16e-05
2 76_2 0.00022896
3 76_3 2.04e-05
4 76_4 0.0002172
5 76_5 0.00046128
*RES
1 *77:Y 76_1 0.933333
2 76_1 76_2 5.69333
3 76_2 76_3 0.233333
4 76_3 *78:C 0
5 76_3 76_4 3.03333
6 76_4 *79:D 0
7 76_1 76_5 6.81333
8 76_5 *80:C 0
*END
*D_NET *81 0.00038208
*CONN
*I *82:Q O *D _89
*I *83:B I *L 0
*I *84:A I *L 0
*I *85:A I *L 0
*CAP
1 81_1 4.08e-05
2 81_2 7.392e-05
3 81_3 5.76e-05
4 81_4 8.16e-05
5 81_5 0.00012816
*RES
1 *82:Q 81_1 0.466667
2 81_1 81_2 2.05333
3 81_2 81_3 0.373333
4 81_3 *83:B 0
5 81_2 81_4 0.933333
6 81_4 *84:A 0
7 81_1 81_5 2.89333
8 81_5 *85:A 0
*END
*D_NET *86 0.00023616
*CONN
*I *87:Y O *D _44
*I *88:B I *L 0
*I *89:B I *L 0
*CAP
1 86_1 7.776e-05
2 86_2 0.0001584
*RES
1 *87:Y 86_1 0.933333
2 86_1 *88:B 0
3 86_1 86_2 1.02667
4 86_2 *89:B 0
*END
*D_NET *90 0.0003852
*CONN
*I *91:Y O *D _45
*I *92:B I *L 0
*I *93:A I *L 0
*CAP
1 90_1 8.736e-05
2 90_2 0
3 90_3 0.00029784
*RES
1 *91:Y 90_1 2.42667
2 90_1 90_2 0
3 90_2 *92:B 0
4 90_2 90_3 5.27333
5 90_3 *93:A 0
*END
*D_NET *94 0.00023736
*CONN
*I *95:Y O *D _46
*I *96:B I *L 0
*I *97:B I *L 0
*CAP
1 94_1 0.0001428
2 94_2 4.08e-05
3 94_3 5.376e-05
*RES
1 *95:Y 94_1 1.63333
2 94_1 94_2 0.466667
3 94_2 *96:B 0
4 94_1 94_3 1.49333
5 94_3 *97:B 0
*END
*D_NET *98 0.00038832
*CONN
*I *99:Y O *D _51
*I *100:C I *L 0
*I *101:C I *L 0
*CAP
1 98_1 0.0001584
2 98_2 0.00022992
*RES
1 *99:Y 98_1 1.02667
2 98_1 *100:C 0
3 98_1 98_2 4.38667
4 98_2 *101:C 0
*END
*D_NET *102 0.00057816
*CONN
*I *103:Y O *D _52
*I *104:C I *L 0
*I *105:A I *L 0
*CAP
1 102_1 0.00033864
2 102_2 0.00023952
*RES
1 *103:Y 102_1 5.74
2 102_1 *104:C 0
3 102_1 102_2 4.76
4 102_2 *105:A 0
*END
*D_NET *106 0.00040128
*CONN
*I *107:Y O *D _56
*I *108:C I *L 0
*I *109:C I *L 0
*CAP
1 106_1 0.00014208
2 106_2 0.0002592
*RES
1 *107:Y 106_1 1.49333
2 106_1 *108:C 0
3 106_1 106_2 1.68
4 106_2 *109:C 0
*END
*D_NET *110 0.00028248
*CONN
*I *111:Y O *D _59
*I *112:B I *L 0
*I *113:A I *L 0
*CAP
1 110_1 8.64e-05
2 110_2 0.00019608
*RES
1 *111:Y 110_1 0.56
2 110_1 *112:B 0
3 110_1 110_2 3.78
4 110_2 *113:A 0
*END
*D_NET *114 0.00057384
*CONN
*I *115:Y O *D _66
*I *116:A I *L 0
*I *117:A I *L 0
*CAP
1 114_1 0.0002448
2 114_2 0.000282
3 114_3 4.704e-05
*RES
1 *115:Y 114_1 2.8
2 114_1 114_2 2.94
3 114_2 *116:A 0
4 114_1 114_3 1.30667
5 114_3 *117:A 0
*END
*D_NET *118 0.0006228
*CONN
*I *119:Y O *D _67
*I *120:C I *L 0
*I *121:C I *L 0
*CAP
1 118_1 0.00042
2 118_2 2.04e-05
3 118_3 0.0001824
*RES
1 *119:Y 118_1 5.13333
2 118_1 118_2 0.233333
3 118_2 *120:C 0
4 118_2 118_3 3.73333
5 118_3 *121:C 0
*END
*D_NET *122 0.0003012
*CONN
*I *123:Y O *D _71
*I *124:B I *L 0
*I *125:A I *L 0
*CAP
1 122_1 0.000108
2 122_2 5.76e-05
3 122_3 0.0001356
*RES
1 *123:Y 122_1 2.33333
2 122_1 122_2 0.373333
3 122_2 *124:B 0
4 122_1 122_3 2.1
5 122_3 *125:A 0
*END
*D_NET *126 0.00050856
*CONN
*I *127:Q O *D _91
*I *128:A I *L 0
*I *129:A I *L 0
*CAP
1 126_1 0.00031176
2 126_2 3.36e-05
3 126_3 0.0001632
*RES
1 *127:Q 126_1 3.92667
2 126_1 126_2 0.933333
3 126_2 *128:A 0
4 126_1 126_3 1.86667
5 126_3 *129:A 0
*END
*D_NET *130 0.00035568
*CONN
*I *131:Y O *D _75
*I *132:A I *L 0
*I *133:B I *L 0
*CAP
1 130_1 0.0001596
2 130_2 4.08e-05
3 130_3 0.00015528
*RES
1 *131:Y 130_1 1.54
2 130_1 130_2 0.466667
3 130_2 *132:A 0
4 130_1 130_3 3.31333
5 130_3 *133:B 0
*END
*D_NET *134 0.00013824
*CONN
*I *135:Y O *D _82
*I *136:A I *L 0
*I *137:C I *L 0
*CAP
1 134_1 9.12e-05
2 134_2 0
3 134_3 4.704e-05
*RES
1 *135:Y 134_1 1.30667
2 134_1 134_2 0
3 134_2 *136:A 0
4 134_1 134_3 1.30667
5 134_3 *137:C 0
*END
*D_NET *138 8.64e-05
*CONN
*I *139:Y O *D _49
*I *140:B I *L 0
*CAP
1 138_1 8.64e-05
*RES
1 *139:Y 138_1 0.56
2 138_1 *140:B 0
*END
*D_NET *141 0.00010848
*CONN
*I *142:Y O *D _54
*I *143:A I *L 0
*CAP
1 141_1 0.00010848
*RES
1 *142:Y 141_1 1.68
2 141_1 *143:A 0
*END
*D_NET *144 0.0002772
*CONN
*I *145:Y O *D _55
*I *146:D I *L 0
*CAP
1 144_1 0.0002772
*RES
1 *145:Y 144_1 5.36667
2 144_1 *146:D 0
*END
*D_NET *147 7.776e-05
*CONN
*I *148:Y O *D _58
*I *149:B I *L 0
*CAP
1 147_1 7.776e-05
*RES
1 *148:Y 147_1 0.933333
2 147_1 *149:B 0
*END
*D_NET *150 0.00013872
*CONN
*I *151:Y O *D _60
*I *152:A I *L 0
*CAP
1 150_1 0.00013872
*RES
1 *151:Y 150_1 1.96
2 150_1 *152:A 0
*END
*D_NET *153 0.00031848
*CONN
*I *154:Y O *D _61
*I *155:C I *L 0
*CAP
1 153_1 0.00031848
*RES
1 *154:Y 153_1 5.18
2 153_1 *155:C 0
*END
*D_NET *156 0.00020376
*CONN
*I *157:Y O *D _62
*I *158:D I *L 0
*CAP
1 156_1 0.00020376
*RES
1 *157:Y 156_1 2.66
2 156_1 *158:D 0
*END
*D_NET *159 6.096e-05
*CONN
*I *160:Y O *D _64
*I *161:B I *L 0
*CAP
1 159_1 6.096e-05
*RES
1 *160:Y 159_1 1.02667
2 159_1 *161:B 0
*END
*D_NET *162 0.00037824
*CONN
*I *163:Y O *D _65
*I *164:A I *L 0
*CAP
1 162_1 0.00037824
*RES
1 *163:Y 162_1 7.84
2 162_1 *164:A 0
*END
*D_NET *165 6.096e-05
*CONN
*I *166:Y O *D _68
*I *167:B I *L 0
*CAP
1 165_1 6.096e-05
*RES
1 *166:Y 165_1 1.02667
2 165_1 *167:B 0
*END
*D_NET *168 0.00043512
*CONN
*I *169:Y O *D _69
*I *170:B I *L 0
*CAP
1 168_1 0.00043512
*RES
1 *169:Y 168_1 6.02
2 168_1 *170:B 0
*END
*D_NET *171 0.00027336
*CONN
*I *172:Y O *D _72
*I *173:B I *L 0
*CAP
1 171_1 0.00027336
*RES
1 *172:Y 171_1 5.92667
2 171_1 *173:B 0
*END
*D_NET *174 7.44e-05
*CONN
*I *175:Y O *D _73
*I *176:C I *L 0
*CAP
1 174_1 7.44e-05
*RES
1 *175:Y 174_1 1.4
2 174_1 *176:C 0
*END
*D_NET *177 0.00056208
*CONN
*I *178:Y O *D _74
*I *179:D I *L 0
*CAP
1 177_1 0.00056208
*RES
1 *178:Y 177_1 7.74667
2 177_1 *179:D 0
*END
*D_NET *180 6.096e-05
*CONN
*I *181:Y O *D _76
*I *182:B I *L 0
*CAP
1 180_1 6.096e-05
*RES
1 *181:Y 180_1 1.02667
2 180_1 *182:B 0
*END
*D_NET *183 3.36e-05
*CONN
*I *184:Y O *D _77
*I *185:C I *L 0
*CAP
1 183_1 3.36e-05
*RES
1 *184:Y 183_1 0.933333
2 183_1 *185:C 0
*END
*D_NET *186 0.00024408
*CONN
*I *187:Y O *D _78
*I *188:B I *L 0
*CAP
1 186_1 0.00024408
*RES
1 *187:Y 186_1 3.78
2 186_1 *188:B 0
*END
*D_NET *189 0.0004476
*CONN
*I *190:Y O *D _79
*I *191:D I *L 0
*CAP
1 189_1 0.0004476
*RES
1 *190:Y 189_1 6.76667
2 189_1 *191:D 0
*END
*D_NET *192 0.0002736
*CONN
*I *193:Y O *D _80
*I *194:A I *L 0
*CAP
1 192_1 0.0002736
*RES
1 *193:Y 192_1 1.77333
2 192_1 *194:A 0
*END
*D_NET *195 0.0001428
*CONN
*I *196:Y O *D _81
*I *197:B I *L 0
*CAP
1 195_1 0.0001428
*RES
1 *196:Y 195_1 1.63333
2 195_1 *197:B 0
*END
*D_NET *198 8.64e-05
*CONN
*I *199:Y O *D _83
*I *200:B I *L 0
*CAP
1 198_1 8.64e-05
*RES
1 *199:Y 198_1 0.56
2 198_1 *200:B 0
*END
*D_NET *201 0.0002172
*CONN
*I *202:Y O *D _84
*I *203:C I *L 0
*CAP
1 201_1 0.0002172
*RES
1 *202:Y 201_1 3.03333
2 201_1 *203:C 0
*END
*D_NET *204 3.36e-05
*CONN
*I *205:Y O *D _85
*I *206:D I *L 0
*CAP
1 204_1 3.36e-05
*RES
1 *205:Y 204_1 0.933333
2 204_1 *206:D 0
*END
*D_NET *207 0.00020928
*CONN
*I *208:Y O *D _86
*I *209:C I *L 0
*CAP
1 207_1 0.00020928
*RES
1 *208:Y 207_1 4.48
2 207_1 *209:C 0
*END
*D_NET *210 6.72e-05
*CONN
*I *211:Y O *D _87
*I *212:D I *L 0
*CAP
1 210_1 6.72e-05
*RES
1 *211:Y 210_1 1.86667
2 210_1 *212:D 0
*END
*D_NET *213 0.00011424
*CONN
*I *214:Y O *D _93
*P *213 I
*CAP
1 213_1 0.00011424
*RES
1 *214:Y 213_1 1.30667
2 213_1 *213 0
*END
*D_NET *215 0.0003468
*CONN
*I *216:Y O *D _94
*P *215 I
*CAP
1 215_1 0.0003468
*RES
1 *216:Y 215_1 3.56667
2 215_1 *215 0
*END
*D_NET *217 6.768e-05
*CONN
*I *218:Y O *D _95
*P *217 I
*CAP
1 217_1 6.768e-05
*RES
1 *218:Y 217_1 1.21333
2 217_1 *217 0
*END
